data_Octa_FeO6
_audit_creation_method             "toy example"
_symmetry_Int_Tables_number        1
_symmetry_space_group_name_H-M     'P 1'
_cell_length_a 10.00000
_cell_length_b 10.00000
_cell_length_c 10.00000
_cell_angle_alpha 90
_cell_angle_beta  90
_cell_angle_gamma 90

loop_
  _symmetry_equiv_pos_site_id
  _symmetry_equiv_pos_as_xyz
  1  x,y,z

loop_
  _atom_site_label
  _atom_site_type_symbol
  _atom_site_fract_x
  _atom_site_fract_y
  _atom_site_fract_z
  _atom_site_occupancy
  Fe1 Fe 0.50000 0.50000 0.50000 1.0
  O1  O  0.60000 0.50000 0.50000 1.0
  O2  O  0.40000 0.50000 0.50000 1.0
  O3  O  0.50000 0.60000 0.50000 1.0
  O4  O  0.50000 0.40000 0.50000 1.0
  O5  O  0.50000 0.50000 0.60000 1.0
  O6  O  0.50000 0.50000 0.40000 1.0
